<?xml version="1.0" encoding="utf-8"?>
<!DOCTYPE population SYSTEM "http://www.matsim.org/files/dtd/population_v6.dtd">

<population>



<!-- ====================================================================== -->

	<person id="1">
		<plan selected="yes">
			<activity type="activity" link="14910" x="1446720.7351911757" y="473768.8318037172" end_time="00:01:16" >
			</activity>
			<leg mode="av" dep_time="00:01:16">
			</leg>
			<activity type="activity" link="24477" x="1443675.415109946" y="468488.0264879986" start_time="01:01:16" >
			</activity>
		</plan>

	</person>

<!-- ====================================================================== -->

	<person id="10">
		<plan selected="yes">
			<activity type="activity" link="37074" x="1448761.3597835982" y="478806.14756846405" end_time="00:02:57" >
			</activity>
			<leg mode="av" dep_time="00:02:57">
			</leg>
			<activity type="activity" link="38385" x="1451092.2104854845" y="477624.9307334279" start_time="01:02:57" >
			</activity>
		</plan>

	</person>

<!-- ====================================================================== -->

	<person id="100">
		<plan selected="yes">
			<activity type="activity" link="26102" x="1445969.1956850276" y="477415.6895334454" end_time="00:38:11" >
			</activity>
			<leg mode="av" dep_time="00:38:11">
			</leg>
			<activity type="activity" link="44802" x="1441407.206946663" y="475290.6648600771" start_time="01:38:11" >
			</activity>
		</plan>

	</person>

<!-- ====================================================================== -->

	<person id="1000">
		<plan selected="yes">
			<activity type="activity" link="2439" x="1444863.3411945538" y="474897.3677550103" end_time="05:06:21" >
			</activity>
			<leg mode="av" dep_time="05:06:21">
			</leg>
			<activity type="activity" link="30679" x="1451954.535929752" y="476420.07104850817" start_time="06:06:21" >
			</activity>
		</plan>

	</person>

<!-- ====================================================================== -->

	<person id="1001">
		<plan selected="yes">
			<activity type="activity" link="23430" x="1451771.1888520261" y="469189.98808218434" end_time="05:06:45" >
			</activity>
			<leg mode="av" dep_time="05:06:45">
			</leg>
			<activity type="activity" link="37131" x="1448854.0329296067" y="471853.9954678806" start_time="06:06:45" >
			</activity>
		</plan>

	</person>

<!-- ====================================================================== -->

	<person id="1002">
		<plan selected="yes">
			<activity type="activity" link="27731" x="1449211.2177481554" y="475064.67119943834" end_time="05:06:46" >
			</activity>
			<leg mode="av" dep_time="05:06:46">
			</leg>
			<activity type="activity" link="30661" x="1448629.7356613358" y="473901.37162966706" start_time="06:06:46" >
			</activity>
		</plan>

	</person>

<!-- ====================================================================== -->

	<person id="1003">
		<plan selected="yes">
			<activity type="activity" link="29148" x="1438528.0672125584" y="480193.3701927561" end_time="05:06:49" >
			</activity>
			<leg mode="av" dep_time="05:06:49">
			</leg>
			<activity type="activity" link="30004" x="1438058.9287914052" y="478307.7256620759" start_time="06:06:49" >
			</activity>
		</plan>

	</person>

<!-- ====================================================================== -->

	<person id="1004">
		<plan selected="yes">
			<activity type="activity" link="13000" x="1441227.3096007449" y="476584.67222553946" end_time="05:07:07" >
			</activity>
			<leg mode="av" dep_time="05:07:07">
			</leg>
			<activity type="activity" link="42799" x="1443040.2331347466" y="477521.4440166664" start_time="06:07:07" >
			</activity>
		</plan>

	</person>

<!-- ====================================================================== -->

	<person id="1005">
		<plan selected="yes">
			<activity type="activity" link="20231" x="1445540.2639636956" y="462835.35714883986" end_time="05:07:59" >
			</activity>
			<leg mode="av" dep_time="05:07:59">
			</leg>
			<activity type="activity" link="7732" x="1449346.4649703102" y="460690.2134121389" start_time="06:07:59" >
			</activity>
		</plan>

	</person>

<!-- ====================================================================== -->

	<person id="1006">
		<plan selected="yes">
			<activity type="activity" link="28026" x="1454117.419707782" y="465431.0826774265" end_time="05:07:53" >
			</activity>
			<leg mode="av" dep_time="05:07:53">
			</leg>
			<activity type="activity" link="6292" x="1449946.3153696198" y="464731.89902717376" start_time="06:07:53" >
			</activity>
		</plan>

	</person>

<!-- ====================================================================== -->

	<person id="1007">
		<plan selected="yes">
			<activity type="activity" link="41952" x="1449708.2698140747" y="477891.73814964044" end_time="05:08:07" >
			</activity>
			<leg mode="av" dep_time="05:08:07">
			</leg>
			<activity type="activity" link="29491" x="1437781.8994738534" y="468359.8674235628" start_time="06:08:07" >
			</activity>
		</plan>

	</person>

<!-- ====================================================================== -->

	<person id="1008">
		<plan selected="yes">
			<activity type="activity" link="21332" x="1442309.7893594685" y="474195.1406489295" end_time="05:08:06" >
			</activity>
			<leg mode="av" dep_time="05:08:06">
			</leg>
			<activity type="activity" link="10840" x="1445315.9425270245" y="475133.6899272263" start_time="06:08:06" >
			</activity>
		</plan>

	</person>

<!-- ====================================================================== -->

	<person id="1009">
		<plan selected="yes">
			<activity type="activity" link="32473" x="1449576.6170268073" y="473711.44362661545" end_time="05:08:41" >
			</activity>
			<leg mode="av" dep_time="05:08:41">
			</leg>
			<activity type="activity" link="26548" x="1448492.1218633" y="474707.16369644" start_time="06:08:41" >
			</activity>
		</plan>

	</person>

<!-- ====================================================================== -->

	<person id="101">
		<plan selected="yes">
			<activity type="activity" link="4725" x="1447092.1771823587" y="479830.9645859861" end_time="00:38:30" >
			</activity>
			<leg mode="av" dep_time="00:38:30">
			</leg>
			<activity type="activity" link="136" x="1441253.2270478248" y="478144.1715750629" start_time="01:38:30" >
			</activity>
		</plan>

	</person>

<!-- ====================================================================== -->

	<person id="1010">
		<plan selected="yes">
			<activity type="activity" link="30678" x="1451932.084766257" y="476579.2071480191" end_time="05:08:49" >
			</activity>
			<leg mode="av" dep_time="05:08:49">
			</leg>
			<activity type="activity" link="43740" x="1449969.3681877994" y="477965.8365472278" start_time="06:08:49" >
			</activity>
		</plan>

	</person>

<!-- ====================================================================== -->

	<person id="1011">
		<plan selected="yes">
			<activity type="activity" link="41271" x="1446440.5205502477" y="470920.6583884195" end_time="05:08:53" >
			</activity>
			<leg mode="av" dep_time="05:08:53">
			</leg>
			<activity type="activity" link="1635" x="1441026.263633288" y="474536.5260149762" start_time="06:08:53" >
			</activity>
		</plan>

	</person>

<!-- ====================================================================== -->

	<person id="1012">
		<plan selected="yes">
			<activity type="activity" link="10855" x="1441569.500231653" y="468887.582866644" end_time="05:09:07" >
			</activity>
			<leg mode="av" dep_time="05:09:07">
			</leg>
			<activity type="activity" link="38084" x="1449014.5426131578" y="478176.29313339887" start_time="06:09:07" >
			</activity>
		</plan>

	</person>

<!-- ====================================================================== -->

	<person id="1013">
		<plan selected="yes">
			<activity type="activity" link="38326" x="1440134.4929054505" y="470321.2724601757" end_time="05:09:10" >
			</activity>
			<leg mode="av" dep_time="05:09:10">
			</leg>
			<activity type="activity" link="15300" x="1439763.8647174984" y="479323.99042219436" start_time="06:09:10" >
			</activity>
		</plan>

	</person>

<!-- ====================================================================== -->

	<person id="1014">
		<plan selected="yes">
			<activity type="activity" link="15659" x="1451133.9002000247" y="473412.19611532806" end_time="05:09:12" >
			</activity>
			<leg mode="av" dep_time="05:09:12">
			</leg>
			<activity type="activity" link="30800" x="1450072.2398722526" y="472576.18650521187" start_time="06:09:12" >
			</activity>
		</plan>

	</person>

<!-- ====================================================================== -->

	<person id="1015">
		<plan selected="yes">
			<activity type="activity" link="8814" x="1429036.9479543557" y="466236.4393004985" end_time="05:09:26" >
			</activity>
			<leg mode="av" dep_time="05:09:26">
			</leg>
			<activity type="activity" link="14106" x="1447295.5282229001" y="468518.9617368352" start_time="06:09:26" >
			</activity>
		</plan>

	</person>

<!-- ====================================================================== -->

	<person id="1016">
		<plan selected="yes">
			<activity type="activity" link="21885" x="1439057.8826637582" y="474613.65817612153" end_time="05:09:28" >
			</activity>
			<leg mode="av" dep_time="05:09:28">
			</leg>
			<activity type="activity" link="10061" x="1433467.1903665254" y="473509.94813524047" start_time="06:09:28" >
			</activity>
		</plan>

	</person>

<!-- ====================================================================== -->

	<person id="1017">
		<plan selected="yes">
			<activity type="activity" link="6925" x="1453624.9403600353" y="472119.6116775301" end_time="05:09:47" >
			</activity>
			<leg mode="av" dep_time="05:09:47">
			</leg>
			<activity type="activity" link="40001" x="1449841.6505514462" y="477156.91114051756" start_time="06:09:47" >
			</activity>
		</plan>

	</person>

<!-- ====================================================================== -->

	<person id="1018">
		<plan selected="yes">
			<activity type="activity" link="15096" x="1439275.4822298004" y="474822.6013861424" end_time="05:10:25" >
			</activity>
			<leg mode="av" dep_time="05:10:25">
			</leg>
			<activity type="activity" link="25778" x="1451380.7309717552" y="469895.0926964246" start_time="06:10:25" >
			</activity>
		</plan>

	</person>

<!-- ====================================================================== -->

	<person id="1019">
		<plan selected="yes">
			<activity type="activity" link="41836" x="1448716.4183345283" y="478796.7394262797" end_time="05:10:28" >
			</activity>
			<leg mode="av" dep_time="05:10:28">
			</leg>
			<activity type="activity" link="19665" x="1447691.2791897994" y="479045.4806244876" start_time="06:10:28" >
			</activity>
		</plan>

	</person>

<!-- ====================================================================== -->

	<person id="102">
		<plan selected="yes">
			<activity type="activity" link="19439" x="1442468.5795447761" y="478139.5530851961" end_time="00:38:56" >
			</activity>
			<leg mode="av" dep_time="00:38:56">
			</leg>
			<activity type="activity" link="8145" x="1452641.4740058107" y="470519.7481597505" start_time="01:38:56" >
			</activity>
		</plan>

	</person>

<!-- ====================================================================== -->

	<person id="1020">
		<plan selected="yes">
			<activity type="activity" link="29473" x="1436383.5566707635" y="467123.9940464633" end_time="05:10:33" >
			</activity>
			<leg mode="av" dep_time="05:10:33">
			</leg>
			<activity type="activity" link="35987" x="1446675.7033609096" y="469169.31521658326" start_time="06:10:33" >
			</activity>
		</plan>

	</person>

<!-- ====================================================================== -->

	<person id="1021">
		<plan selected="yes">
			<activity type="activity" link="19665" x="1447691.2791897994" y="479045.4806244876" end_time="05:10:52" >
			</activity>
			<leg mode="av" dep_time="05:10:52">
			</leg>
			<activity type="activity" link="38148" x="1450617.3006623352" y="475070.3937768233" start_time="06:10:52" >
			</activity>
		</plan>

	</person>

<!-- ====================================================================== -->

	<person id="1022">
		<plan selected="yes">
			<activity type="activity" link="31629" x="1448543.8389932027" y="479160.8179009191" end_time="05:10:59" >
			</activity>
			<leg mode="av" dep_time="05:10:59">
			</leg>
			<activity type="activity" link="38607" x="1440775.7319747717" y="480158.3369136654" start_time="06:10:59" >
			</activity>
		</plan>

	</person>

<!-- ====================================================================== -->

	<person id="1023">
		<plan selected="yes">
			<activity type="activity" link="39357" x="1449833.459373372" y="477620.4653775089" end_time="05:11:01" >
			</activity>
			<leg mode="av" dep_time="05:11:01">
			</leg>
			<activity type="activity" link="27345" x="1450644.1739058844" y="478347.6269769252" start_time="06:11:01" >
			</activity>
		</plan>

	</person>

<!-- ====================================================================== -->

	<person id="1024">
		<plan selected="yes">
			<activity type="activity" link="19442" x="1442373.847598122" y="478820.8871171425" end_time="05:11:01" >
			</activity>
			<leg mode="av" dep_time="05:11:01">
			</leg>
			<activity type="activity" link="38746" x="1448024.012807829" y="472588.12931507034" start_time="06:11:01" >
			</activity>
		</plan>

	</person>

<!-- ====================================================================== -->

	<person id="1025">
		<plan selected="yes">
			<activity type="activity" link="24283" x="1441401.6838483983" y="467166.2410010982" end_time="05:11:32" >
			</activity>
			<leg mode="av" dep_time="05:11:32">
			</leg>
			<activity type="activity" link="22293" x="1444820.9778403288" y="464268.5917707732" start_time="06:11:32" >
			</activity>
		</plan>

	</person>

<!-- ====================================================================== -->

	<person id="1026">
		<plan selected="yes">
			<activity type="activity" link="4435" x="1448150.8980179115" y="473966.44956692343" end_time="05:11:45" >
			</activity>
			<leg mode="av" dep_time="05:11:45">
			</leg>
			<activity type="activity" link="22307" x="1447746.2590608816" y="475125.54375524" start_time="06:11:45" >
			</activity>
		</plan>

	</person>

<!-- ====================================================================== -->

	<person id="1027">
		<plan selected="yes">
			<activity type="activity" link="1645" x="1444217.6122248336" y="466289.8108552776" end_time="05:11:50" >
			</activity>
			<leg mode="av" dep_time="05:11:50">
			</leg>
			<activity type="activity" link="8983" x="1446795.0303012333" y="456703.2393079889" start_time="06:11:50" >
			</activity>
		</plan>

	</person>

<!-- ====================================================================== -->

	<person id="1028">
		<plan selected="yes">
			<activity type="activity" link="35858" x="1438478.2966046443" y="478786.36371420405" end_time="05:12:08" >
			</activity>
			<leg mode="av" dep_time="05:12:08">
			</leg>
			<activity type="activity" link="40002" x="1450105.5448934324" y="477004.51397728315" start_time="06:12:08" >
			</activity>
		</plan>

	</person>

<!-- ====================================================================== -->

	<person id="1029">
		<plan selected="yes">
			<activity type="activity" link="13513" x="1448103.320368005" y="474307.4545236012" end_time="05:12:14" >
			</activity>
			<leg mode="av" dep_time="05:12:14">
			</leg>
			<activity type="activity" link="32716" x="1449724.3024900644" y="475574.51182469726" start_time="06:12:14" >
			</activity>
		</plan>

	</person>

<!-- ====================================================================== -->

	<person id="103">
		<plan selected="yes">
			<activity type="activity" link="14871" x="1452237.079623588" y="476970.762899826" end_time="00:39:16" >
			</activity>
			<leg mode="av" dep_time="00:39:16">
			</leg>
			<activity type="activity" link="4125" x="1440323.6383087588" y="469061.23212355387" start_time="01:39:16" >
			</activity>
		</plan>

	</person>

<!-- ====================================================================== -->

	<person id="1030">
		<plan selected="yes">
			<activity type="activity" link="24028" x="1446473.139057818" y="422522.623909633" end_time="05:12:49" >
			</activity>
			<leg mode="av" dep_time="05:12:49">
			</leg>
			<activity type="activity" link="4435" x="1448150.8980179115" y="473966.44956692343" start_time="06:12:49" >
			</activity>
		</plan>

	</person>

<!-- ====================================================================== -->

	<person id="1031">
		<plan selected="yes">
			<activity type="activity" link="31177" x="1444938.4901849977" y="462182.93670888315" end_time="05:12:46" >
			</activity>
			<leg mode="av" dep_time="05:12:46">
			</leg>
			<activity type="activity" link="28693" x="1441407.3333688865" y="466039.07600238355" start_time="06:12:46" >
			</activity>
		</plan>

	</person>

<!-- ====================================================================== -->

	<person id="1032">
		<plan selected="yes">
			<activity type="activity" link="29254" x="1439165.8053212482" y="480922.0028452171" end_time="05:12:49" >
			</activity>
			<leg mode="av" dep_time="05:12:49">
			</leg>
			<activity type="activity" link="5877" x="1443500.801331328" y="464485.42667346157" start_time="06:12:49" >
			</activity>
		</plan>

	</person>

<!-- ====================================================================== -->

	<person id="1033">
		<plan selected="yes">
			<activity type="activity" link="24028" x="1446473.139057818" y="422522.623909633" end_time="05:12:51" >
			</activity>
			<leg mode="av" dep_time="05:12:51">
			</leg>
			<activity type="activity" link="27228" x="1453005.9548352263" y="471006.34750934516" start_time="06:12:51" >
			</activity>
		</plan>

	</person>

<!-- ====================================================================== -->

	<person id="1034">
		<plan selected="yes">
			<activity type="activity" link="20332" x="1444639.6597522087" y="467557.8495086278" end_time="05:13:02" >
			</activity>
			<leg mode="av" dep_time="05:13:02">
			</leg>
			<activity type="activity" link="26940" x="1442071.803373784" y="470519.1629822478" start_time="06:13:02" >
			</activity>
		</plan>

	</person>

<!-- ====================================================================== -->

	<person id="1035">
		<plan selected="yes">
			<activity type="activity" link="11906" x="1440884.3910796847" y="464870.3575271573" end_time="05:13:15" >
			</activity>
			<leg mode="av" dep_time="05:13:15">
			</leg>
			<activity type="activity" link="4811" x="1446840.9999011005" y="474651.8260113139" start_time="06:13:15" >
			</activity>
		</plan>

	</person>

<!-- ====================================================================== -->

	<person id="1036">
		<plan selected="yes">
			<activity type="activity" link="8453" x="1445482.4839396318" y="475681.12392936775" end_time="05:13:23" >
			</activity>
			<leg mode="av" dep_time="05:13:23">
			</leg>
			<activity type="activity" link="12323" x="1445257.450126958" y="462229.9455851029" start_time="06:13:23" >
			</activity>
		</plan>

	</person>

<!-- ====================================================================== -->

	<person id="1037">
		<plan selected="yes">
			<activity type="activity" link="28062" x="1451601.13536334" y="465291.75461040006" end_time="05:13:49" >
			</activity>
			<leg mode="av" dep_time="05:13:49">
			</leg>
			<activity type="activity" link="10864" x="1448786.8173659374" y="474661.1069982467" start_time="06:13:49" >
			</activity>
		</plan>

	</person>

<!-- ====================================================================== -->

	<person id="1038">
		<plan selected="yes">
			<activity type="activity" link="40510" x="1437492.3500624928" y="472795.18453241244" end_time="05:13:47" >
			</activity>
			<leg mode="av" dep_time="05:13:47">
			</leg>
			<activity type="activity" link="21312" x="1448030.4960778537" y="473083.1782478145" start_time="06:13:47" >
			</activity>
		</plan>

	</person>

<!-- ====================================================================== -->

	<person id="1039">
		<plan selected="yes">
			<activity type="activity" link="9672" x="1451912.1776080672" y="478725.2262280291" end_time="05:14:04" >
			</activity>
			<leg mode="av" dep_time="05:14:04">
			</leg>
			<activity type="activity" link="31145" x="1449112.087134969" y="478433.9952145238" start_time="06:14:04" >
			</activity>
		</plan>

	</person>

<!-- ====================================================================== -->

	<person id="104">
		<plan selected="yes">
			<activity type="activity" link="9838" x="1446856.268699683" y="481525.31458531495" end_time="00:39:15" >
			</activity>
			<leg mode="av" dep_time="00:39:15">
			</leg>
			<activity type="activity" link="21784" x="1454185.1675528418" y="471642.02968787344" start_time="01:39:15" >
			</activity>
		</plan>

	</person>

<!-- ====================================================================== -->

	<person id="1040">
		<plan selected="yes">
			<activity type="activity" link="38073" x="1445335.329320737" y="478488.6590764936" end_time="05:14:15" >
			</activity>
			<leg mode="av" dep_time="05:14:15">
			</leg>
			<activity type="activity" link="44391" x="1440086.7196065336" y="470762.815914983" start_time="06:14:15" >
			</activity>
		</plan>

	</person>

<!-- ====================================================================== -->

	<person id="1041">
		<plan selected="yes">
			<activity type="activity" link="31155" x="1444776.5756181364" y="465102.54986672563" end_time="05:14:24" >
			</activity>
			<leg mode="av" dep_time="05:14:24">
			</leg>
			<activity type="activity" link="8098" x="1454106.2968992575" y="471531.9249033647" start_time="06:14:24" >
			</activity>
		</plan>

	</person>

<!-- ====================================================================== -->

	<person id="1042">
		<plan selected="yes">
			<activity type="activity" link="4825" x="1446458.408847932" y="473905.3503262482" end_time="05:14:36" >
			</activity>
			<leg mode="av" dep_time="05:14:36">
			</leg>
			<activity type="activity" link="14106" x="1447295.5282229001" y="468518.9617368352" start_time="06:14:36" >
			</activity>
		</plan>

	</person>

<!-- ====================================================================== -->

	<person id="1043">
		<plan selected="yes">
			<activity type="activity" link="35161" x="1449937.611857168" y="477633.8234212728" end_time="05:14:35" >
			</activity>
			<leg mode="av" dep_time="05:14:35">
			</leg>
			<activity type="activity" link="30029" x="1451207.3362624017" y="473660.87202625157" start_time="06:14:35" >
			</activity>
		</plan>

	</person>

<!-- ====================================================================== -->

	<person id="1044">
		<plan selected="yes">
			<activity type="activity" link="27715" x="1448986.8911162894" y="481854.29969365074" end_time="05:14:53" >
			</activity>
			<leg mode="av" dep_time="05:14:53">
			</leg>
			<activity type="activity" link="24028" x="1446473.139057818" y="422522.623909633" start_time="06:14:53" >
			</activity>
		</plan>

	</person>

<!-- ====================================================================== -->

	<person id="1045">
		<plan selected="yes">
			<activity type="activity" link="38092" x="1449346.2315301704" y="478221.5200546442" end_time="05:15:21" >
			</activity>
			<leg mode="av" dep_time="05:15:21">
			</leg>
			<activity type="activity" link="8175" x="1441659.0244872577" y="473482.58121553157" start_time="06:15:21" >
			</activity>
		</plan>

	</person>

<!-- ====================================================================== -->

	<person id="1046">
		<plan selected="yes">
			<activity type="activity" link="28508" x="1450339.5572090875" y="475313.1898010375" end_time="05:15:36" >
			</activity>
			<leg mode="av" dep_time="05:15:36">
			</leg>
			<activity type="activity" link="35816" x="1438227.259764446" y="475349.59020583844" start_time="06:15:36" >
			</activity>
		</plan>

	</person>

<!-- ====================================================================== -->

	<person id="1047">
		<plan selected="yes">
			<activity type="activity" link="30353" x="1451779.6108317124" y="476561.75971808354" end_time="05:16:06" >
			</activity>
			<leg mode="av" dep_time="05:16:06">
			</leg>
			<activity type="activity" link="23924" x="1448105.5315855248" y="476046.0719421607" start_time="06:16:06" >
			</activity>
		</plan>

	</person>

<!-- ====================================================================== -->

	<person id="1048">
		<plan selected="yes">
			<activity type="activity" link="36773" x="1441130.3981354898" y="465525.9992554838" end_time="05:16:23" >
			</activity>
			<leg mode="av" dep_time="05:16:23">
			</leg>
			<activity type="activity" link="7243" x="1441053.9692654628" y="458504.3013747841" start_time="06:16:23" >
			</activity>
		</plan>

	</person>

<!-- ====================================================================== -->

	<person id="1049">
		<plan selected="yes">
			<activity type="activity" link="32716" x="1449724.3024900644" y="475574.51182469726" end_time="05:16:33" >
			</activity>
			<leg mode="av" dep_time="05:16:33">
			</leg>
			<activity type="activity" link="25785" x="1445313.1230124328" y="459590.16486346326" start_time="06:16:33" >
			</activity>
		</plan>

	</person>

<!-- ====================================================================== -->

	<person id="105">
		<plan selected="yes">
			<activity type="activity" link="27464" x="1436408.6172886186" y="476042.34481981944" end_time="00:40:17" >
			</activity>
			<leg mode="av" dep_time="00:40:17">
			</leg>
			<activity type="activity" link="22224" x="1444948.0764753676" y="481266.00514605234" start_time="01:40:17" >
			</activity>
		</plan>

	</person>

<!-- ====================================================================== -->

	<person id="1050">
		<plan selected="yes">
			<activity type="activity" link="19574" x="1450650.2250755313" y="473918.8974449276" end_time="05:17:04" >
			</activity>
			<leg mode="av" dep_time="05:17:04">
			</leg>
			<activity type="activity" link="29254" x="1439165.8053212482" y="480922.0028452171" start_time="06:17:04" >
			</activity>
		</plan>

	</person>

<!-- ====================================================================== -->

	<person id="1051">
		<plan selected="yes">
			<activity type="activity" link="43379" x="1448609.4080436055" y="470309.25213848636" end_time="05:17:04" >
			</activity>
			<leg mode="av" dep_time="05:17:04">
			</leg>
			<activity type="activity" link="22235" x="1445458.0439512217" y="474112.5467759515" start_time="06:17:04" >
			</activity>
		</plan>

	</person>

<!-- ====================================================================== -->

	<person id="1052">
		<plan selected="yes">
			<activity type="activity" link="43962" x="1447333.2409659047" y="481589.7592527342" end_time="05:17:11" >
			</activity>
			<leg mode="av" dep_time="05:17:11">
			</leg>
			<activity type="activity" link="20875" x="1441944.572181761" y="478413.86901316594" start_time="06:17:11" >
			</activity>
		</plan>

	</person>

<!-- ====================================================================== -->

	<person id="1053">
		<plan selected="yes">
			<activity type="activity" link="32474" x="1449807.9863313437" y="473483.880238955" end_time="05:17:48" >
			</activity>
			<leg mode="av" dep_time="05:17:48">
			</leg>
			<activity type="activity" link="30015" x="1447359.465879533" y="469982.65549894667" start_time="06:17:48" >
			</activity>
		</plan>

	</person>

<!-- ====================================================================== -->

	<person id="1054">
		<plan selected="yes">
			<activity type="activity" link="38218" x="1453500.0509886732" y="470925.1149609712" end_time="05:18:25" >
			</activity>
			<leg mode="av" dep_time="05:18:25">
			</leg>
			<activity type="activity" link="29997" x="1448744.086515984" y="474916.2615735573" start_time="06:18:25" >
			</activity>
		</plan>

	</person>

<!-- ====================================================================== -->

	<person id="1055">
		<plan selected="yes">
			<activity type="activity" link="36989" x="1451482.941189465" y="474803.2445518782" end_time="05:19:00" >
			</activity>
			<leg mode="av" dep_time="05:19:00">
			</leg>
			<activity type="activity" link="33815" x="1441467.76324787" y="478347.5480371324" start_time="06:19:00" >
			</activity>
		</plan>

	</person>

<!-- ====================================================================== -->

	<person id="1056">
		<plan selected="yes">
			<activity type="activity" link="21314" x="1447935.836996572" y="473763.2844800285" end_time="05:18:57" >
			</activity>
			<leg mode="av" dep_time="05:18:57">
			</leg>
			<activity type="activity" link="12115" x="1448448.5016726085" y="478798.31101483456" start_time="06:18:57" >
			</activity>
		</plan>

	</person>

<!-- ====================================================================== -->

	<person id="1057">
		<plan selected="yes">
			<activity type="activity" link="20432" x="1434794.597725825" y="474273.81992216257" end_time="05:19:22" >
			</activity>
			<leg mode="av" dep_time="05:19:22">
			</leg>
			<activity type="activity" link="4731" x="1448436.492742212" y="475395.1403487682" start_time="06:19:22" >
			</activity>
		</plan>

	</person>

<!-- ====================================================================== -->

	<person id="1058">
		<plan selected="yes">
			<activity type="activity" link="35065" x="1439418.917170906" y="479103.86473768286" end_time="05:19:31" >
			</activity>
			<leg mode="av" dep_time="05:19:31">
			</leg>