<?xml version="1.0" encoding="utf-8"?>
<!DOCTYPE population SYSTEM "http://www.matsim.org/files/dtd/population_v6.dtd">

<population>

	<attributes>
		<attribute name="coordinateReferenceSystem" class="java.lang.String">Atlantis</attribute>
	</attributes>


<!-- ====================================================================== -->

	<person id="1001">
		<plan selected="yes">
			<activity type="activity" link="4191" x="1451771.1888520261" y="469189.98808218434" end_time="05:06:45" >
			</activity>
			<leg mode="av" dep_time="05:06:45">
			</leg>
			<activity type="activity" link="37131" x="1448854.0329296067" y="471853.9954678806" start_time="06:06:45" >
			</activity>
		</plan>

	</person>

<!-- ====================================================================== -->

	<person id="1005">
		<plan selected="yes">
			<activity type="activity" link="20231" x="1445540.2639636956" y="462835.35714883986" end_time="05:07:59" >
			</activity>
			<leg mode="av" dep_time="05:07:59">
			</leg>
			<activity type="activity" link="7732" x="1449346.4649703102" y="460690.2134121389" start_time="06:07:59" >
			</activity>
		</plan>

	</person>

<!-- ====================================================================== -->

	<person id="1014">
		<plan selected="yes">
			<activity type="activity" link="15659" x="1451133.9002000247" y="473412.19611532806" end_time="05:09:12" >
			</activity>
			<leg mode="av" dep_time="05:09:12">
			</leg>
			<activity type="activity" link="30800" x="1450072.2398722526" y="472576.18650521187" start_time="06:09:12" >
			</activity>
		</plan>

	</person>

<!-- ====================================================================== -->

	<person id="1093">
		<plan selected="yes">
			<activity type="activity" link="33962" x="1447736.5814877397" y="467994.3892645559" end_time="05:26:28" >
			</activity>
			<leg mode="av" dep_time="05:26:28">
			</leg>
			<activity type="activity" link="8920" x="1452066.283653162" y="473610.55616800033" start_time="06:26:28" >
			</activity>
		</plan>

	</person>

<!-- ====================================================================== -->

	<person id="1098">
		<plan selected="yes">
			<activity type="activity" link="22307" x="1447746.2590608816" y="475125.54375524" end_time="05:27:37" >
			</activity>
			<leg mode="av" dep_time="05:27:37">
			</leg>
			<activity type="activity" link="13513" x="1448103.320368005" y="474307.4545236012" start_time="06:27:37" >
			</activity>
		</plan>

	</person>

<!-- ====================================================================== -->

	<person id="1124">
		<plan selected="yes">
			<activity type="activity" link="43855" x="1444651.024339004" y="476583.8566912895" end_time="05:32:42" >
			</activity>
			<leg mode="av" dep_time="05:32:42">
			</leg>
			<activity type="activity" link="1644" x="1444391.141326115" y="466298.1527206666" start_time="06:32:42" >
			</activity>
		</plan>

	</person>

<!-- ====================================================================== -->

	<person id="1128">
		<plan selected="yes">
			<activity type="activity" link="40382" x="1440776.3579109004" y="461414.77106196526" end_time="05:33:01" >
			</activity>
			<leg mode="av" dep_time="05:33:01">
			</leg>
			<activity type="activity" link="35632" x="1440719.627313926" y="469757.83394424175" start_time="06:33:01" >
			</activity>
		</plan>

	</person>

<!-- ====================================================================== -->

	<person id="1135">
		<plan selected="yes">
			<activity type="activity" link="2093" x="1440371.9979979277" y="479236.4718537424" end_time="05:34:37" >
			</activity>
			<leg mode="av" dep_time="05:34:37">
			</leg>
			<activity type="activity" link="13294" x="1431858.393526048" y="466253.459979901" start_time="06:34:37" >
			</activity>
		</plan>

	</person>

<!-- ====================================================================== -->

	<person id="1152">
		<plan selected="yes">
			<activity type="activity" link="38387" x="1448404.3418128002" y="479142.1592010757" end_time="05:40:07" >
			</activity>
			<leg mode="av" dep_time="05:40:07">
			</leg>
			<activity type="activity" link="4712" x="1447390.1041264157" y="477694.08701631095" start_time="06:40:07" >
			</activity>
		</plan>

	</person>

<!-- ====================================================================== -->

	<person id="1167">
		<plan selected="yes">
			<activity type="activity" link="27228" x="1453005.9548352263" y="471006.34750934516" end_time="05:42:01" >
			</activity>
			<leg mode="av" dep_time="05:42:01">
			</leg>
			<activity type="activity" link="18046" x="1442349.6061287615" y="477248.53509293334" start_time="06:42:01" >
			</activity>
		</plan>

	</person>

<!-- ====================================================================== -->

	<person id="1174">
		<plan selected="yes">
			<activity type="activity" link="35632" x="1440719.627313926" y="469757.83394424175" end_time="05:42:54" >
			</activity>
			<leg mode="av" dep_time="05:42:54">
			</leg>
			<activity type="activity" link="22296" x="1447783.9706590748" y="474854.3741771092" start_time="06:42:54" >
			</activity>
		</plan>

	</person>

<!-- ====================================================================== -->

	<person id="1195">
		<plan selected="yes">
			<activity type="activity" link="21818" x="1430536.598998447" y="473063.6409227988" end_time="05:48:45" >
			</activity>
			<leg mode="av" dep_time="05:48:45">
			</leg>
			<activity type="activity" link="9580" x="1430378.9015503088" y="473126.5836642502" start_time="06:48:45" >
			</activity>
		</plan>

	</person>

<!-- ====================================================================== -->

	<person id="1217">
		<plan selected="yes">
			<activity type="activity" link="42359" x="1439626.2908011102" y="470525.6490526614" end_time="05:52:17" >
			</activity>
			<leg mode="av" dep_time="05:52:17">
			</leg>
			<activity type="activity" link="38350" x="1446124.2582399184" y="472817.6531203126" start_time="06:52:17" >
			</activity>
		</plan>

	</person>

<!-- ====================================================================== -->

	<person id="1219">
		<plan selected="yes">
			<activity type="activity" link="38994" x="1449701.3281819983" y="477929.0641440993" end_time="05:52:47" >
			</activity>
			<leg mode="av" dep_time="05:52:47">
			</leg>
			<activity type="activity" link="29972" x="1448523.9162261086" y="478981.7841454301" start_time="06:52:47" >
			</activity>
		</plan>

	</person>

<!-- ====================================================================== -->

	<person id="1230">
		<plan selected="yes">
			<activity type="activity" link="27231" x="1452472.3088426695" y="470501.24992899696" end_time="05:55:21" >
			</activity>
			<leg mode="av" dep_time="05:55:21">
			</leg>
			<activity type="activity" link="2664" x="1449606.2521767598" y="479830.31350842974" start_time="06:55:21" >
			</activity>
		</plan>

	</person>

<!-- ====================================================================== -->

	<person id="1248">
		<plan selected="yes">
			<activity type="activity" link="9830" x="1446902.2684617476" y="481192.07712297933" end_time="05:58:48" >
			</activity>
			<leg mode="av" dep_time="05:58:48">
			</leg>
			<activity type="activity" link="40001" x="1449841.6505514462" y="477156.91114051756" start_time="06:58:48" >
			</activity>
		</plan>

	</person>

<!-- ====================================================================== -->

	<person id="1263">
		<plan selected="yes">
			<activity type="activity" link="10835" x="1445410.5900150114" y="474452.9901408127" end_time="06:01:48" >
			</activity>
			<leg mode="av" dep_time="06:01:48">
			</leg>
			<activity type="activity" link="2181" x="1447056.3215958746" y="461178.3013968766" start_time="07:01:48" >
			</activity>
		</plan>

	</person>

<!-- ====================================================================== -->

	<person id="1281">
		<plan selected="yes">
			<activity type="activity" link="26357" x="1449580.42321969" y="478007.60784374207" end_time="06:05:25" >
			</activity>
			<leg mode="av" dep_time="06:05:25">
			</leg>
			<activity type="activity" link="22330" x="1447512.747297735" y="472145.42321489827" start_time="07:05:25" >
			</activity>
		</plan>

	</person>

<!-- ====================================================================== -->

	<person id="1283">
		<plan selected="yes">
			<activity type="activity" link="11079" x="1450464.3064234802" y="474111.71421528596" end_time="06:05:56" >
			</activity>
			<leg mode="av" dep_time="06:05:56">
			</leg>
			<activity type="activity" link="133" x="1441729.8805166148" y="478210.4556389053" start_time="07:05:56" >
			</activity>
		</plan>

	</person>

<!-- ====================================================================== -->

	<person id="1307">
		<plan selected="yes">
			<activity type="activity" link="42656" x="1449706.5356766535" y="474791.4112945868" end_time="06:14:17" >
			</activity>
			<leg mode="av" dep_time="06:14:17">
			</leg>
			<activity type="activity" link="30490" x="1461907.2987338223" y="482434.2430972117" start_time="07:14:17" >
			</activity>
		</plan>

	</person>

<!-- ====================================================================== -->

	<person id="1333">
		<plan selected="yes">
			<activity type="activity" link="8686" x="1449375.5421333592" y="474136.88095430454" end_time="06:20:17" >
			</activity>
			<leg mode="av" dep_time="06:20:17">
			</leg>
			<activity type="activity" link="43759" x="1450300.529553018" y="465919.583785863" start_time="07:20:17" >
			</activity>
		</plan>

	</person>

<!-- ====================================================================== -->

	<person id="1339">
		<plan selected="yes">
			<activity type="activity" link="22449" x="1444711.8214427202" y="466272.8439372446" end_time="06:21:19" >
			</activity>
			<leg mode="av" dep_time="06:21:19">
			</leg>
			<activity type="activity" link="31377" x="1454101.6200231058" y="466838.5228873793" start_time="07:21:19" >
			</activity>
		</plan>

	</person>

<!-- ====================================================================== -->

	<person id="1342">
		<plan selected="yes">
			<activity type="activity" link="12646" x="1450297.9465389214" y="477377.9619767691" end_time="06:21:34" >
			</activity>
			<leg mode="av" dep_time="06:21:34">
			</leg>
			<activity type="activity" link="7022" x="1440275.035909749" y="476451.99839960487" start_time="07:21:34" >
			</activity>
		</plan>

	</person>

<!-- ====================================================================== -->

	<person id="1349">
		<plan selected="yes">
			<activity type="activity" link="5448" x="1446473.139057818" y="422522.623909633" end_time="06:23:31" >
			</activity>
			<leg mode="av" dep_time="06:23:31">
			</leg>
			<activity type="activity" link="13513" x="1448103.320368005" y="474307.4545236012" start_time="07:23:31" >
			</activity>
		</plan>

	</person>

<!-- ====================================================================== -->

	<person id="1352">
		<plan selected="yes">
			<activity type="activity" link="14582" x="1451275.3108877507" y="476310.1551818502" end_time="06:24:22" >
			</activity>
			<leg mode="av" dep_time="06:24:22">
			</leg>
			<activity type="activity" link="36466" x="1451917.1770796166" y="473904.5191350734" start_time="07:24:22" >
			</activity>
		</plan>

	</person>

<!-- ====================================================================== -->

	<person id="1395">
		<plan selected="yes">
			<activity type="activity" link="17798" x="1449960.8877302061" y="476313.24123872374" end_time="06:33:21" >
			</activity>
			<leg mode="av" dep_time="06:33:21">
			</leg>
			<activity type="activity" link="43551" x="1453166.804831105" y="472479.870716153" start_time="07:33:21" >
			</activity>
		</plan>

	</person>

<!-- ====================================================================== -->

	<person id="1400">
		<plan selected="yes">
			<activity type="activity" link="13735" x="1440434.0129006659" y="479417.12423278217" end_time="06:34:57" >
			</activity>
			<leg mode="av" dep_time="06:34:57">
			</leg>
			<activity type="activity" link="32817" x="1442583.845494845" y="470329.8677626992" start_time="07:34:57" >
			</activity>
		</plan>

	</person>

<!-- ====================================================================== -->

	<person id="1422">
		<plan selected="yes">
			<activity type="activity" link="29517" x="1452791.8011119296" y="477531.22257788794" end_time="06:39:31" >
			</activity>
			<leg mode="av" dep_time="06:39:31">
			</leg>
			<activity type="activity" link="15727" x="1446310.5717422445" y="481962.46045435814" start_time="07:39:31" >
			</activity>
		</plan>

	</person>

<!-- ====================================================================== -->

	<person id="1503">
		<plan selected="yes">
			<activity type="activity" link="21274" x="1446297.395155013" y="475798.2748710971" end_time="07:00:13" >
			</activity>
			<leg mode="av" dep_time="07:00:13">
			</leg>
			<activity type="activity" link="19947" x="1445724.801613424" y="465211.6171567652" start_time="08:00:13" >
			</activity>
		</plan>

	</person>

<!-- ====================================================================== -->

	<person id="1526">
		<plan selected="yes">
			<activity type="activity" link="28507" x="1450815.3350318375" y="475379.4519173341" end_time="07:04:51" >
			</activity>
			<leg mode="av" dep_time="07:04:51">
			</leg>
			<activity type="activity" link="15406" x="1449725.729666919" y="477275.34159257193" start_time="08:04:51" >
			</activity>
		</plan>

	</person>

<!-- ====================================================================== -->

	<person id="1541">
		<plan selected="yes">
			<activity type="activity" link="14975" x="1444103.969085416" y="465837.5922446811" end_time="07:08:03" >
			</activity>
			<leg mode="av" dep_time="07:08:03">
			</leg>
			<activity type="activity" link="30699" x="1441454.8667485714" y="474947.3136282464" start_time="08:08:03" >
			</activity>
		</plan>

	</person>

<!-- ====================================================================== -->

	<person id="1551">
		<plan selected="yes">
			<activity type="activity" link="36619" x="1448309.7263276298" y="478053.5888390838" end_time="07:09:14" >
			</activity>
			<leg mode="av" dep_time="07:09:14">
			</leg>
			<activity type="activity" link="36619" x="1448309.7263276298" y="478053.5888390838" start_time="08:09:14" >
			</activity>
		</plan>

	</person>

<!-- ====================================================================== -->

	<person id="1578">
		<plan selected="yes">
			<activity type="activity" link="29007" x="1440929.6810779045" y="464053.61713821767" end_time="07:15:46" >
			</activity>
			<leg mode="av" dep_time="07:15:46">
			</leg>
			<activity type="activity" link="6641" x="1445353.02795063" y="466219.60059073695" start_time="08:15:46" >
			</activity>
		</plan>

	</person>

<!-- ====================================================================== -->

	<person id="1582">
		<plan selected="yes">
			<activity type="activity" link="7521" x="1441397.8308882639" y="461449.34317423345" end_time="07:16:44" >
			</activity>
			<leg mode="av" dep_time="07:16:44">
			</leg>
			<activity type="activity" link="35408" x="1446971.3401668617" y="474149.7880009683" start_time="08:16:44" >
			</activity>
		</plan>

	</person>

<!-- ====================================================================== -->

	<person id="1600">
		<plan selected="yes">
			<activity type="activity" link="1112" x="1446820.3729701773" y="476545.7175112518" end_time="07:20:40" >
			</activity>
			<leg mode="av" dep_time="07:20:40">
			</leg>
			<activity type="activity" link="35238" x="1448809.8641558322" y="474491.5945128689" start_time="08:20:40" >
			</activity>
		</plan>

	</person>

<!-- ====================================================================== -->

	<person id="1637">
		<plan selected="yes">
			<activity type="activity" link="10864" x="1448804.6441858886" y="474577.88840444735" end_time="07:28:10" >
			</activity>
			<leg mode="av" dep_time="07:28:10">
			</leg>
			<activity type="activity" link="10864" x="1448804.6441858886" y="474577.88840444735" start_time="08:28:10" >
			</activity>
		</plan>

	</person>

<!-- ====================================================================== -->

	<person id="1640">
		<plan selected="yes">
			<activity type="activity" link="38762" x="1447531.80246101" y="474922.0255939601" end_time="07:28:58" >
			</activity>
			<leg mode="av" dep_time="07:28:58">
			</leg>
			<activity type="activity" link="17756" x="1452494.023625394" y="475767.7840919256" start_time="08:28:58" >
			</activity>
		</plan>

	</person>

<!-- ====================================================================== -->

	<person id="1652">
		<plan selected="yes">
			<activity type="activity" link="10835" x="1445410.5900150114" y="474452.9901408127" end_time="07:30:58" >
			</activity>
			<leg mode="av" dep_time="07:30:58">
			</leg>
			<activity type="activity" link="34780" x="1444431.8631251762" y="478158.043382333" start_time="08:30:58" >
			</activity>
		</plan>

	</person>

<!-- ====================================================================== -->

	<person id="1661">
		<plan selected="yes">
			<activity type="activity" link="33077" x="1449227.5532738622" y="478329.10110942065" end_time="07:32:35" >
			</activity>
			<leg mode="av" dep_time="07:32:35">
			</leg>
			<activity type="activity" link="42816" x="1444100.759376485" y="475138.1195940906" start_time="08:32:35" >
			</activity>
		</plan>

	</person>

<!-- ====================================================================== -->

	<person id="167">
		<plan selected="yes">
			<activity type="activity" link="136" x="1441253.2270478248" y="478144.1715750629" end_time="01:03:40" >
			</activity>
			<leg mode="av" dep_time="01:03:40">
			</leg>
			<activity type="activity" link="17315" x="1442297.079020341" y="468900.0756104259" start_time="02:03:40" >
			</activity>
		</plan>

	</person>

<!-- ====================================================================== -->

	<person id="1682">
		<plan selected="yes">
			<activity type="activity" link="35907" x="1448841.6602468048" y="473187.82854271214" end_time="07:36:58" >
			</activity>
			<leg mode="av" dep_time="07:36:58">
			</leg>
			<activity type="activity" link="21315" x="1447888.4134286705" y="474103.9406925811" start_time="08:36:58" >
			</activity>
		</plan>

	</person>

<!-- ====================================================================== -->

	<person id="1689">
		<plan selected="yes">
			<activity type="activity" link="5219" x="1444410.9761466486" y="479969.33013074705" end_time="07:37:56" >
			</activity>
			<leg mode="av" dep_time="07:37:56">
			</leg>
			<activity type="activity" link="13461" x="1445796.0337759259" y="481444.86581076914" start_time="08:37:56" >
			</activity>
		</plan>

	</person>

<!-- ====================================================================== -->

	<person id="169">
		<plan selected="yes">
			<activity type="activity" link="13512" x="1448577.6889549298" y="474373.56081111473" end_time="01:03:41" >
			</activity>
			<leg mode="av" dep_time="01:03:41">
			</leg>
			<activity type="activity" link="4812" x="1446793.5262007238" y="474992.7952032808" start_time="02:03:41" >
			</activity>
		</plan>

	</person>

<!-- ====================================================================== -->

	<person id="1690">
		<plan selected="yes">
			<activity type="activity" link="10840" x="1445315.9425270245" y="475133.6899272263" end_time="07:38:11" >
			</activity>
			<leg mode="av" dep_time="07:38:11">
			</leg>
			<activity type="activity" link="33874" x="1441110.6875982108" y="479167.31835501606" start_time="08:38:11" >
			</activity>
		</plan>

	</person>

<!-- ====================================================================== -->

	<person id="1701">
		<plan selected="yes">
			<activity type="activity" link="27483" x="1443536.5341023942" y="470462.4723939437" end_time="07:41:17" >
			</activity>
			<leg mode="av" dep_time="07:41:17">
			</leg>
			<activity type="activity" link="32713" x="1448923.0998325385" y="475462.86001910665" start_time="08:41:17" >
			</activity>
		</plan>

	</person>

<!-- ====================================================================== -->

	<person id="1717">
		<plan selected="yes">
			<activity type="activity" link="38343" x="1448598.9018543917" y="473335.7463652713" end_time="07:44:10" >
			</activity>
			<leg mode="av" dep_time="07:44:10">
			</leg>
			<activity type="activity" link="42192" x="1447523.8702521382" y="480236.15582269896" start_time="08:44:10" >
			</activity>
		</plan>

	</person>

<!-- ====================================================================== -->

	<person id="1736">
		<plan selected="yes">
			<activity type="activity" link="16180" x="1447507.4693279085" y="474224.46363898704" end_time="07:47:12" >
			</activity>
			<leg mode="av" dep_time="07:47:12">
			</leg>
			<activity type="activity" link="8231" x="1428413.1475868325" y="470900.5587251506" start_time="08:47:12" >
			</activity>
		</plan>

	</person>

<!-- ====================================================================== -->

	<person id="1737">
		<plan selected="yes">
			<activity type="activity" link="32713" x="1448923.0998325385" y="475462.86001910665" end_time="07:47:44" >
			</activity>
			<leg mode="av" dep_time="07:47:44">
			</leg>
			<activity type="activity" link="40178" x="1436872.9414611273" y="468232.7260152218" start_time="08:47:44" >
			</activity>
		</plan>

	</person>

<!-- ====================================================================== -->

	<person id="1745">
		<plan selected="yes">
			<activity type="activity" link="35370" x="1452764.5744888207" y="470391.89922353067" end_time="07:49:12" >
			</activity>
			<leg mode="av" dep_time="07:49:12">
			</leg>
			<activity type="activity" link="20361" x="1444706.4926912894" y="466362.49133150745" start_time="08:49:12" >
			</activity>
		</plan>

	</person>

<!-- ====================================================================== -->

	<person id="1749">
		<plan selected="yes">
			<activity type="activity" link="22364" x="1444232.451348396" y="465698.0854062544" end_time="07:50:32" >
			</activity>
			<leg mode="av" dep_time="07:50:32">
			</leg>
			<activity type="activity" link="7051" x="1439281.082894688" y="465274.5005363499" start_time="08:50:32" >
			</activity>
		</plan>

	</person>

<!-- ====================================================================== -->

	<person id="1776">
		<plan selected="yes">
			<activity type="activity" link="33687" x="1440991.2562547019" y="478281.28380534775" end_time="07:55:49" >
			</activity>
			<leg mode="av" dep_time="07:55:49">
			</leg>
			<activity type="activity" link="19574" x="1450650.2250755313" y="473918.8974449276" start_time="08:55:49" >
			</activity>
		</plan>

	</person>

<!-- ====================================================================== -->

	<person id="1789">
		<plan selected="yes">
			<activity type="activity" link="31881" x="1446935.7153089494" y="473971.7684968838" end_time="07:57:20" >
			</activity>
			<leg mode="av" dep_time="07:57:20">
			</leg>
			<activity type="activity" link="10854" x="1442046.2370589874" y="468953.60063716234" start_time="08:57:20" >
			</activity>
		</plan>

	</person>

<!-- ====================================================================== -->

	<person id="1798">
		<plan selected="yes">
			<activity type="activity" link="15096" x="1439275.4822298004" y="474822.6013861424" end_time="07:59:33" >
			</activity>
			<leg mode="av" dep_time="07:59:33">
			</leg>
			<activity type="activity" link="34476" x="1444068.9852113998" y="466282.5962306204" start_time="08:59:33" >
			</activity>
		</plan>

	</person>

<!-- ====================================================================== -->

	<person id="1848">
		<plan selected="yes">
			<activity type="activity" link="12623" x="1422820.6453889136" y="453827.9013257937" end_time="08:07:37" >
			</activity>
			<leg mode="av" dep_time="08:07:37">
			</leg>
			<activity type="activity" link="19439" x="1442468.5795447761" y="478139.5530851961" start_time="09:07:37" >
			</activity>
		</plan>

	</person>

<!-- ====================================================================== -->

	<person id="1875">
		<plan selected="yes">
			<activity type="activity" link="5177" x="1445129.1650954266" y="476473.3335326541" end_time="08:13:37" >
			</activity>
			<leg mode="av" dep_time="08:13:37">
			</leg>
			<activity type="activity" link="13699" x="1443804.0946608777" y="470240.0496853802" start_time="09:13:37" >
			</activity>
		</plan>

	</person>

<!-- ====================================================================== -->

	<person id="1882">
		<plan selected="yes">
			<activity type="activity" link="21056" x="1454013.3233863567" y="473030.7565918622" end_time="08:15:12" >
			</activity>
			<leg mode="av" dep_time="08:15:12">
			</leg>
			<activity type="activity" link="28867" x="1449629.6449654968" y="478261.17974496575" start_time="09:15:12" >
			</activity>
		</plan>

	</person>

<!-- ====================================================================== -->

	<person id="1905">
		<plan selected="yes">
			<activity type="activity" link="22091" x="1449995.3476769635" y="476065.2131268714" end_time="08:19:26" >
			</activity>
			<leg mode="av" dep_time="08:19:26">
			</leg>
			<activity type="activity" link="7031" x="1440038.436977643" y="478148.7763568312" start_time="09:19:26" >
			</activity>
		</plan>

	</person>

<!-- ====================================================================== -->

	<person id="1906">
		<plan selected="yes">
			<activity type="activity" link="32343" x="1445445.0095866788" y="470556.19913922204" end_time="08:19:37" >
			</activity>
			<leg mode="av" dep_time="08:19:37">
			</leg>
			<activity type="activity" link="36389" x="1448557.440122557" y="472164.9504784867" start_time="09:19:37" >
			</activity>
		</plan>

	</person>

<!-- ====================================================================== -->

	<person id="1933">
		<plan selected="yes">
			<activity type="activity" link="38286" x="1445443.890051329" y="472548.696624618" end_time="08:23:19" >
			</activity>
			<leg mode="av" dep_time="08:23:19">
			</leg>
			<activity type="activity" link="5013" x="1434143.830164297" y="472353.18129387335" start_time="09:23:19" >
			</activity>
		</plan>

	</person>

<!-- ====================================================================== -->

	<person id="1940">
		<plan selected="yes">
			<activity type="activity" link="20875" x="1441944.572181761" y="478413.86901316594" end_time="08:24:31" >
			</activity>
			<leg mode="av" dep_time="08:24:31">
			</leg>
			<activity type="activity" link="42786" x="1442441.78315303" y="476589.4341283897" start_time="09:24:31" >
			</activity>
		</plan>

	</person>

<!-- ====================================================================== -->

	<person id="1962">
		<plan selected="yes">
			<activity type="activity" link="26545" x="1447117.3127307594" y="474516.1537845569" end_time="08:27:42" >
			</activity>
			<leg mode="av" dep_time="08:27:42">
			</leg>
			<activity type="activity" link="27642" x="1451813.2282677847" y="474241.086994485" start_time="09:27:42" >
			</activity>
		</plan>

	</person>

<!-- ====================================================================== -->

	<person id="1974">
		<plan selected="yes">
			<activity type="activity" link="40178" x="1436872.9414611273" y="468232.7260152218" end_time="08:30:06" >
			</activity>
			<leg mode="av" dep_time="08:30:06">
			</leg>
			<activity type="activity" link="35620" x="1440708.0921950014" y="469840.23595136835" start_time="09:30:06" >
			</activity>
		</plan>

	</person>

<!-- ====================================================================== -->

	<person id="2">
		<plan selected="yes">
			<activity type="activity" link="16115" x="1445932.3285947572" y="470410.7421974309" end_time="00:01:35" >
			</activity>
			<leg mode="av" dep_time="00:01:35">
			</leg>
			<activity type="activity" link="43534" x="1450401.7998011538" y="466633.7162637821" start_time="01:01:35" >
			</activity>
		</plan>

	</person>

<!-- ====================================================================== -->

	<person id="2003">
		<plan selected="yes">
			<activity type="activity" link="10181" x="1445538.8075169951" y="462861.627380415" end_time="08:34:55" >
			</activity>
			<leg mode="av" dep_time="08:34:55">
			</leg>
			<activity type="activity" link="26845" x="1443838.3980791257" y="458804.3112225153" start_time="09:34:55" >
			</activity>
		</plan>

	</person>

<!-- ====================================================================== -->

	<person id="2035">
		<plan selected="yes">
			<activity type="activity" link="16208" x="1434811.622923507" y="470202.27688656404" end_time="08:40:38" >
			</activity>
			<leg mode="av" dep_time="08:40:38">
			</leg>
			<activity type="activity" link="32712" x="1448679.4267210113" y="475428.9145340314" start_time="09:40:38" >
			</activity>
		</plan>

	</person>

<!-- ====================================================================== -->

	<person id="2039">
		<plan selected="yes">
			<activity type="activity" link="15298" x="1440114.4880176582" y="479372.71954819385" end_time="08:41:21" >
			</activity>
			<leg mode="av" dep_time="08:41:21">
			</leg>
			<activity type="activity" link="15298" x="1440114.4880176582" y="479372.71954819385" start_time="09:41:21" >
			</activity>
		</plan>

	</person>

<!-- ====================================================================== -->

	<person id="204">
		<plan selected="yes">
			<activity type="activity" link="32472" x="1449482.9910468908" y="473792.0535685434" end_time="01:18:33" >
			</activity>