<?xml version="1.0" encoding="utf-8"?>
<!DOCTYPE population SYSTEM "http://www.matsim.org/files/dtd/population_v6.dtd">

<population>



<!-- ====================================================================== -->

	<person id="1">
		<plan selected="yes">
			<activity type="activity" link="14910" end_time="00:01:16" >
			</activity>
			<leg mode="av" dep_time="00:01:16">
			</leg>
			<activity type="activity" link="24477" start_time="01:01:16" >
			</activity>
		</plan>

	</person>

<!-- ====================================================================== -->

	<person id="10">
		<plan selected="yes">
			<activity type="activity" link="37074" end_time="00:02:57" >
			</activity>
			<leg mode="av" dep_time="00:02:57">
			</leg>
			<activity type="activity" link="38385" start_time="01:02:57" >
			</activity>
		</plan>

	</person>

<!-- ====================================================================== -->

	<person id="100">
		<plan selected="yes">
			<activity type="activity" link="26102" end_time="00:38:11" >
			</activity>
			<leg mode="av" dep_time="00:38:11">
			</leg>
			<activity type="activity" link="44802" start_time="01:38:11" >
			</activity>
		</plan>

	</person>

<!-- ====================================================================== -->

	<person id="1000">
		<plan selected="yes">
			<activity type="activity" link="2439" end_time="05:06:21" >
			</activity>
			<leg mode="av" dep_time="05:06:21">
			</leg>
			<activity type="activity" link="30679" start_time="06:06:21" >
			</activity>
		</plan>

	</person>

<!-- ====================================================================== -->

	<person id="1001">
		<plan selected="yes">
			<activity type="activity" link="23430" end_time="05:06:45" >
			</activity>
			<leg mode="av" dep_time="05:06:45">
			</leg>
			<activity type="activity" link="37131" start_time="06:06:45" >
			</activity>
		</plan>

	</person>

<!-- ====================================================================== -->

	<person id="1002">
		<plan selected="yes">
			<activity type="activity" link="27731" end_time="05:06:46" >
			</activity>
			<leg mode="av" dep_time="05:06:46">
			</leg>
			<activity type="activity" link="30661" start_time="06:06:46" >
			</activity>
		</plan>

	</person>

<!-- ====================================================================== -->

	<person id="1003">
		<plan selected="yes">
			<activity type="activity" link="29148" end_time="05:06:49" >
			</activity>
			<leg mode="av" dep_time="05:06:49">
			</leg>
			<activity type="activity" link="30004" start_time="06:06:49" >
			</activity>
		</plan>

	</person>

<!-- ====================================================================== -->

	<person id="1004">
		<plan selected="yes">
			<activity type="activity" link="13000" end_time="05:07:07" >
			</activity>
			<leg mode="av" dep_time="05:07:07">
			</leg>
			<activity type="activity" link="42799" start_time="06:07:07" >
			</activity>
		</plan>

	</person>

<!-- ====================================================================== -->

	<person id="1005">
		<plan selected="yes">
			<activity type="activity" link="20231" end_time="05:07:59" >
			</activity>
			<leg mode="av" dep_time="05:07:59">
			</leg>
			<activity type="activity" link="7732" start_time="06:07:59" >
			</activity>
		</plan>

	</person>

<!-- ====================================================================== -->

	<person id="1006">
		<plan selected="yes">
			<activity type="activity" link="28026" end_time="05:07:53" >
			</activity>
			<leg mode="av" dep_time="05:07:53">
			</leg>
			<activity type="activity" link="6292" start_time="06:07:53" >
			</activity>
		</plan>

	</person>

<!-- ====================================================================== -->

	<person id="1007">
		<plan selected="yes">
			<activity type="activity" link="41952" end_time="05:08:07" >
			</activity>
			<leg mode="av" dep_time="05:08:07">
			</leg>
			<activity type="activity" link="29491" start_time="06:08:07" >
			</activity>
		</plan>

	</person>

<!-- ====================================================================== -->

	<person id="1008">
		<plan selected="yes">
			<activity type="activity" link="21332" end_time="05:08:06" >
			</activity>
			<leg mode="av" dep_time="05:08:06">
			</leg>
			<activity type="activity" link="10840" start_time="06:08:06" >
			</activity>
		</plan>

	</person>

<!-- ====================================================================== -->

	<person id="1009">
		<plan selected="yes">
			<activity type="activity" link="32473" end_time="05:08:41" >
			</activity>
			<leg mode="av" dep_time="05:08:41">
			</leg>
			<activity type="activity" link="26548" start_time="06:08:41" >
			</activity>
		</plan>

	</person>

<!-- ====================================================================== -->

	<person id="101">
		<plan selected="yes">
			<activity type="activity" link="4725" end_time="00:38:30" >
			</activity>
			<leg mode="av" dep_time="00:38:30">
			</leg>
			<activity type="activity" link="136" start_time="01:38:30" >
			</activity>
		</plan>

	</person>

<!-- ====================================================================== -->

	<person id="1010">
		<plan selected="yes">
			<activity type="activity" link="30678" end_time="05:08:49" >
			</activity>
			<leg mode="av" dep_time="05:08:49">
			</leg>
			<activity type="activity" link="43740" start_time="06:08:49" >
			</activity>
		</plan>

	</person>

<!-- ====================================================================== -->

	<person id="1011">
		<plan selected="yes">
			<activity type="activity" link="41271" end_time="05:08:53" >
			</activity>
			<leg mode="av" dep_time="05:08:53">
			</leg>
			<activity type="activity" link="1635" start_time="06:08:53" >
			</activity>
		</plan>

	</person>

<!-- ====================================================================== -->

	<person id="1012">
		<plan selected="yes">
			<activity type="activity" link="10855" end_time="05:09:07" >
			</activity>
			<leg mode="av" dep_time="05:09:07">
			</leg>
			<activity type="activity" link="38084" start_time="06:09:07" >
			</activity>
		</plan>

	</person>

<!-- ====================================================================== -->

	<person id="1013">
		<plan selected="yes">
			<activity type="activity" link="38326" end_time="05:09:10" >
			</activity>
			<leg mode="av" dep_time="05:09:10">
			</leg>
			<activity type="activity" link="15300" start_time="06:09:10" >
			</activity>
		</plan>

	</person>

<!-- ====================================================================== -->

	<person id="1014">
		<plan selected="yes">
			<activity type="activity" link="15659" end_time="05:09:12" >
			</activity>
			<leg mode="av" dep_time="05:09:12">
			</leg>
			<activity type="activity" link="30800" start_time="06:09:12" >
			</activity>
		</plan>

	</person>

<!-- ====================================================================== -->

	<person id="1015">
		<plan selected="yes">
			<activity type="activity" link="8814" end_time="05:09:26" >
			</activity>
			<leg mode="av" dep_time="05:09:26">
			</leg>
			<activity type="activity" link="14106" start_time="06:09:26" >
			</activity>
		</plan>

	</person>

<!-- ====================================================================== -->

	<person id="1016">
		<plan selected="yes">
			<activity type="activity" link="21885" end_time="05:09:28" >
			</activity>
			<leg mode="av" dep_time="05:09:28">
			</leg>
			<activity type="activity" link="10061" start_time="06:09:28" >
			</activity>
		</plan>

	</person>

<!-- ====================================================================== -->

	<person id="1017">
		<plan selected="yes">
			<activity type="activity" link="6925" end_time="05:09:47" >
			</activity>
			<leg mode="av" dep_time="05:09:47">
			</leg>
			<activity type="activity" link="40001" start_time="06:09:47" >
			</activity>
		</plan>

	</person>

<!-- ====================================================================== -->

	<person id="1018">
		<plan selected="yes">
			<activity type="activity" link="15096" end_time="05:10:25" >
			</activity>
			<leg mode="av" dep_time="05:10:25">
			</leg>
			<activity type="activity" link="25778" start_time="06:10:25" >
			</activity>
		</plan>

	</person>

<!-- ====================================================================== -->

	<person id="1019">
		<plan selected="yes">
			<activity type="activity" link="41836" end_time="05:10:28" >
			</activity>
			<leg mode="av" dep_time="05:10:28">
			</leg>
			<activity type="activity" link="19665" start_time="06:10:28" >
			</activity>
		</plan>

	</person>

<!-- ====================================================================== -->

	<person id="102">
		<plan selected="yes">
			<activity type="activity" link="19439" end_time="00:38:56" >
			</activity>
			<leg mode="av" dep_time="00:38:56">
			</leg>
			<activity type="activity" link="8145" start_time="01:38:56" >
			</activity>
		</plan>

	</person>

<!-- ====================================================================== -->

	<person id="1020">
		<plan selected="yes">
			<activity type="activity" link="29473" end_time="05:10:33" >
			</activity>
			<leg mode="av" dep_time="05:10:33">
			</leg>
			<activity type="activity" link="35987" start_time="06:10:33" >
			</activity>
		</plan>

	</person>

<!-- ====================================================================== -->

	<person id="1021">
		<plan selected="yes">
			<activity type="activity" link="19665" end_time="05:10:52" >
			</activity>
			<leg mode="av" dep_time="05:10:52">
			</leg>
			<activity type="activity" link="38148" start_time="06:10:52" >
			</activity>
		</plan>

	</person>

<!-- ====================================================================== -->

	<person id="1022">
		<plan selected="yes">
			<activity type="activity" link="31629" end_time="05:10:59" >
			</activity>
			<leg mode="av" dep_time="05:10:59">
			</leg>
			<activity type="activity" link="38607" start_time="06:10:59" >
			</activity>
		</plan>

	</person>

<!-- ====================================================================== -->

	<person id="1023">
		<plan selected="yes">
			<activity type="activity" link="39357" end_time="05:11:01" >
			</activity>
			<leg mode="av" dep_time="05:11:01">
			</leg>
			<activity type="activity" link="27345" start_time="06:11:01" >
			</activity>
		</plan>

	</person>

<!-- ====================================================================== -->

	<person id="1024">
		<plan selected="yes">
			<activity type="activity" link="19442" end_time="05:11:01" >
			</activity>
			<leg mode="av" dep_time="05:11:01">
			</leg>
			<activity type="activity" link="38746" start_time="06:11:01" >
			</activity>
		</plan>

	</person>

<!-- ====================================================================== -->

	<person id="1025">
		<plan selected="yes">
			<activity type="activity" link="24283" end_time="05:11:32" >
			</activity>
			<leg mode="av" dep_time="05:11:32">
			</leg>
			<activity type="activity" link="22293" start_time="06:11:32" >
			</activity>
		</plan>

	</person>

<!-- ====================================================================== -->

	<person id="1026">
		<plan selected="yes">
			<activity type="activity" link="4435" end_time="05:11:45" >
			</activity>
			<leg mode="av" dep_time="05:11:45">
			</leg>
			<activity type="activity" link="22307" start_time="06:11:45" >
			</activity>
		</plan>

	</person>

<!-- ====================================================================== -->

	<person id="1027">
		<plan selected="yes">
			<activity type="activity" link="1645" end_time="05:11:50" >
			</activity>
			<leg mode="av" dep_time="05:11:50">
			</leg>
			<activity type="activity" link="8983" start_time="06:11:50" >
			</activity>
		</plan>

	</person>

<!-- ====================================================================== -->

	<person id="1028">
		<plan selected="yes">
			<activity type="activity" link="35858" end_time="05:12:08" >
			</activity>
			<leg mode="av" dep_time="05:12:08">
			</leg>
			<activity type="activity" link="40002" start_time="06:12:08" >
			</activity>
		</plan>

	</person>

<!-- ====================================================================== -->

	<person id="1029">
		<plan selected="yes">
			<activity type="activity" link="13513" end_time="05:12:14" >
			</activity>
			<leg mode="av" dep_time="05:12:14">
			</leg>
			<activity type="activity" link="32716" start_time="06:12:14" >
			</activity>
		</plan>

	</person>

<!-- ====================================================================== -->

	<person id="103">
		<plan selected="yes">
			<activity type="activity" link="14871" end_time="00:39:16" >
			</activity>
			<leg mode="av" dep_time="00:39:16">
			</leg>
			<activity type="activity" link="4125" start_time="01:39:16" >
			</activity>
		</plan>

	</person>

<!-- ====================================================================== -->

	<person id="1030">
		<plan selected="yes">
			<activity type="activity" link="24028" end_time="05:12:49" >
			</activity>
			<leg mode="av" dep_time="05:12:49">
			</leg>
			<activity type="activity" link="4435" start_time="06:12:49" >
			</activity>
		</plan>

	</person>

<!-- ====================================================================== -->

	<person id="1031">
		<plan selected="yes">
			<activity type="activity" link="31177" end_time="05:12:46" >
			</activity>
			<leg mode="av" dep_time="05:12:46">
			</leg>
			<activity type="activity" link="28693" start_time="06:12:46" >
			</activity>
		</plan>

	</person>

<!-- ====================================================================== -->

	<person id="1032">
		<plan selected="yes">
			<activity type="activity" link="29254" end_time="05:12:49" >
			</activity>
			<leg mode="av" dep_time="05:12:49">
			</leg>
			<activity type="activity" link="5877" start_time="06:12:49" >
			</activity>
		</plan>

	</person>

<!-- ====================================================================== -->

	<person id="1033">
		<plan selected="yes">
			<activity type="activity" link="24028" end_time="05:12:51" >
			</activity>
			<leg mode="av" dep_time="05:12:51">
			</leg>
			<activity type="activity" link="27228" start_time="06:12:51" >
			</activity>
		</plan>

	</person>

<!-- ====================================================================== -->

	<person id="1034">
		<plan selected="yes">
			<activity type="activity" link="20332" end_time="05:13:02" >
			</activity>
			<leg mode="av" dep_time="05:13:02">
			</leg>
			<activity type="activity" link="26940" start_time="06:13:02" >
			</activity>
		</plan>

	</person>

<!-- ====================================================================== -->

	<person id="1035">
		<plan selected="yes">
			<activity type="activity" link="11906" end_time="05:13:15" >
			</activity>
			<leg mode="av" dep_time="05:13:15">
			</leg>
			<activity type="activity" link="4811" start_time="06:13:15" >
			</activity>
		</plan>

	</person>

<!-- ====================================================================== -->

	<person id="1036">
		<plan selected="yes">
			<activity type="activity" link="8453" end_time="05:13:23" >
			</activity>
			<leg mode="av" dep_time="05:13:23">
			</leg>
			<activity type="activity" link="12323" start_time="06:13:23" >
			</activity>
		</plan>

	</person>

<!-- ====================================================================== -->

	<person id="1037">
		<plan selected="yes">
			<activity type="activity" link="28062" end_time="05:13:49" >
			</activity>
			<leg mode="av" dep_time="05:13:49">
			</leg>
			<activity type="activity" link="10864" start_time="06:13:49" >
			</activity>
		</plan>

	</person>

<!-- ====================================================================== -->

	<person id="1038">
		<plan selected="yes">
			<activity type="activity" link="40510" end_time="05:13:47" >
			</activity>
			<leg mode="av" dep_time="05:13:47">
			</leg>
			<activity type="activity" link="21312" start_time="06:13:47" >
			</activity>
		</plan>

	</person>

<!-- ====================================================================== -->

	<person id="1039">
		<plan selected="yes">
			<activity type="activity" link="9672" end_time="05:14:04" >
			</activity>
			<leg mode="av" dep_time="05:14:04">
			</leg>
			<activity type="activity" link="31145" start_time="06:14:04" >
			</activity>
		</plan>

	</person>

<!-- ====================================================================== -->

	<person id="104">
		<plan selected="yes">
			<activity type="activity" link="9838" end_time="00:39:15" >
			</activity>
			<leg mode="av" dep_time="00:39:15">
			</leg>
			<activity type="activity" link="21784" start_time="01:39:15" >
			</activity>
		</plan>

	</person>

<!-- ====================================================================== -->

	<person id="1040">
		<plan selected="yes">
			<activity type="activity" link="38073" end_time="05:14:15" >
			</activity>
			<leg mode="av" dep_time="05:14:15">
			</leg>
			<activity type="activity" link="44391" start_time="06:14:15" >
			</activity>
		</plan>

	</person>

<!-- ====================================================================== -->

	<person id="1041">
		<plan selected="yes">
			<activity type="activity" link="31155" end_time="05:14:24" >
			</activity>
			<leg mode="av" dep_time="05:14:24">
			</leg>
			<activity type="activity" link="8098" start_time="06:14:24" >
			</activity>
		</plan>

	</person>

<!-- ====================================================================== -->

	<person id="1042">
		<plan selected="yes">
			<activity type="activity" link="4825" end_time="05:14:36" >
			</activity>
			<leg mode="av" dep_time="05:14:36">
			</leg>
			<activity type="activity" link="14106" start_time="06:14:36" >
			</activity>
		</plan>

	</person>

<!-- ====================================================================== -->

	<person id="1043">
		<plan selected="yes">
			<activity type="activity" link="35161" end_time="05:14:35" >
			</activity>
			<leg mode="av" dep_time="05:14:35">
			</leg>
			<activity type="activity" link="30029" start_time="06:14:35" >
			</activity>
		</plan>

	</person>

<!-- ====================================================================== -->

	<person id="1044">
		<plan selected="yes">
			<activity type="activity" link="27715" end_time="05:14:53" >
			</activity>
			<leg mode="av" dep_time="05:14:53">
			</leg>
			<activity type="activity" link="24028" start_time="06:14:53" >
			</activity>
		</plan>

	</person>

<!-- ====================================================================== -->

	<person id="1045">
		<plan selected="yes">
			<activity type="activity" link="38092" end_time="05:15:21" >
			</activity>
			<leg mode="av" dep_time="05:15:21">
			</leg>
			<activity type="activity" link="8175" start_time="06:15:21" >
			</activity>
		</plan>

	</person>

<!-- ====================================================================== -->

	<person id="1046">
		<plan selected="yes">
			<activity type="activity" link="28508" end_time="05:15:36" >
			</activity>
			<leg mode="av" dep_time="05:15:36">
			</leg>
			<activity type="activity" link="35816" start_time="06:15:36" >
			</activity>
		</plan>

	</person>

<!-- ====================================================================== -->

	<person id="1047">
		<plan selected="yes">
			<activity type="activity" link="30353" end_time="05:16:06" >
			</activity>
			<leg mode="av" dep_time="05:16:06">
			</leg>
			<activity type="activity" link="23924" start_time="06:16:06" >
			</activity>
		</plan>

	</person>

<!-- ====================================================================== -->

	<person id="1048">
		<plan selected="yes">
			<activity type="activity" link="36773" end_time="05:16:23" >
			</activity>
			<leg mode="av" dep_time="05:16:23">
			</leg>
			<activity type="activity" link="7243" start_time="06:16:23" >
			</activity>
		</plan>

	</person>

<!-- ====================================================================== -->

	<person id="1049">
		<plan selected="yes">
			<activity type="activity" link="32716" end_time="05:16:33" >
			</activity>
			<leg mode="av" dep_time="05:16:33">
			</leg>
			<activity type="activity" link="25785" start_time="06:16:33" >
			</activity>
		</plan>

	</person>

<!-- ====================================================================== -->

	<person id="105">
		<plan selected="yes">
			<activity type="activity" link="27464" end_time="00:40:17" >
			</activity>
			<leg mode="av" dep_time="00:40:17">
			</leg>
			<activity type="activity" link="22224" start_time="01:40:17" >
			</activity>
		</plan>

	</person>

<!-- ====================================================================== -->

	<person id="1050">
		<plan selected="yes">
			<activity type="activity" link="19574" end_time="05:17:04" >
			</activity>
			<leg mode="av" dep_time="05:17:04">
			</leg>
			<activity type="activity" link="29254" start_time="06:17:04" >
			</activity>
		</plan>

	</person>

<!-- ====================================================================== -->

	<person id="1051">
		<plan selected="yes">
			<activity type="activity" link="43379" end_time="05:17:04" >
			</activity>
			<leg mode="av" dep_time="05:17:04">
			</leg>
			<activity type="activity" link="22235" start_time="06:17:04" >
			</activity>
		</plan>

	</person>

<!-- ====================================================================== -->

	<person id="1052">
		<plan selected="yes">
			<activity type="activity" link="43962" end_time="05:17:11" >
			</activity>
			<leg mode="av" dep_time="05:17:11">
			</leg>
			<activity type="activity" link="20875" start_time="06:17:11" >
			</activity>
		</plan>

	</person>

<!-- ====================================================================== -->

	<person id="1053">
		<plan selected="yes">
			<activity type="activity" link="32474" end_time="05:17:48" >
			</activity>
			<leg mode="av" dep_time="05:17:48">
			</leg>
			<activity type="activity" link="30015" start_time="06:17:48" >
			</activity>
		</plan>

	</person>

<!-- ====================================================================== -->

	<person id="1054">
		<plan selected="yes">
			<activity type="activity" link="38218" end_time="05:18:25" >
			</activity>
			<leg mode="av" dep_time="05:18:25">
			</leg>
			<activity type="activity" link="29997" start_time="06:18:25" >
			</activity>
		</plan>

	</person>

<!-- ====================================================================== -->

	<person id="1055">
		<plan selected="yes">
			<activity type="activity" link="36989" end_time="05:19:00" >
			</activity>
			<leg mode="av" dep_time="05:19:00">
			</leg>
			<activity type="activity" link="33815" start_time="06:19:00" >
			</activity>
		</plan>

	</person>

<!-- ====================================================================== -->

	<person id="1056">
		<plan selected="yes">
			<activity type="activity" link="21314" end_time="05:18:57" >
			</activity>
			<leg mode="av" dep_time="05:18:57">
			</leg>
			<activity type="activity" link="12115" start_time="06:18:57" >
			</activity>
		</plan>

	</person>

<!-- ====================================================================== -->

	<person id="1057">
		<plan selected="yes">
			<activity type="activity" link="20432" end_time="05:19:22" >
			</activity>
			<leg mode="av" dep_time="05:19:22">
			</leg>
			<activity type="activity" link="4731" start_time="06:19:22" >
			</activity>
		</plan>

	</person>

<!-- ====================================================================== -->

	<person id="1058">
		<plan selected="yes">
			<activity type="activity" link="35065" end_time="05:19:31" >
			</activity>
			<leg mode="av" dep_time="05:19:31">
			</leg>
			<activity type="activity" link="34505" start_time="06:19:31" >
			</activity>
		</plan>

	</person>

<!-- ====================================================================== -->

	<person id="1059">
		<plan selected="yes">
			<activity type="activity" link="28435" end_time="05:19:31" >
			</activity>
			<leg mode="av" dep_time="05:19:31">
			</leg>
			<activity type="activity" link="15834" start_time="06:19:31" >
			</activity>
		</plan>

	</person>

<!-- ====================================================================== -->

	<person id="106">
		<plan selected="yes">
			<activity type="activity" link="12408" end_time="00:41:24" >
			</activity>
			<leg mode="av" dep_time="00:41:24">
			</leg>
			<activity type="activity" link="4773" start_time="01:41:24" >
			</activity>
		</plan>

	</person>

<!-- ====================================================================== -->

	<person id="1060">
		<plan selected="yes">
			<activity type="activity" link="1644" end_time="05:19:43" >
			</activity>
			<leg mode="av" dep_time="05:19:43">
			</leg>
			<activity type="activity" link="33958" start_time="06:19:43" >
			</activity>
		</plan>

	</person>

<!-- ====================================================================== -->

	<person id="1061">
		<plan selected="yes">
			<activity type="activity" link="32457" end_time="05:19:41" >
			</activity>
			<leg mode="av" dep_time="05:19:41">
			</leg>
			<activity type="activity" link="8624" start_time="06:19:41" >
			</activity>
		</plan>

	</person>

<!-- ====================================================================== -->

	<person id="1062">
		<plan selected="yes">
			<activity type="activity" link="12254" end_time="05:20:03" >
			</activity>
			<leg mode="av" dep_time="05:20:03">
			</leg>
			<activity type="activity" link="4756" start_time="06:20:03" >
			</activity>
		</plan>

	</person>

<!-- ====================================================================== -->

	<person id="1063">
		<plan selected="yes">
			<activity type="activity" link="40605" end_time="05:20:08" >
			</activity>
			<leg mode="av" dep_time="05:20:08">
			</leg>
			<activity type="activity" link="17830" start_time="06:20:08" >
			</activity>
		</plan>

	</person>

<!-- ====================================================================== -->

	<person id="1064">
		<plan selected="yes">
			<activity type="activity" link="4435" end_time="05:20:37" >
			</activity>
			<leg mode="av" dep_time="05:20:37">
			</leg>
			<activity type="activity" link="12232" start_time="06:20:37" >
			</activity>
		</plan>

	</person>

<!-- ====================================================================== -->

	<person id="1065">
		<plan selected="yes">
			<activity type="activity" link="8911" end_time="05:20:31" >
			</activity>
			<leg mode="av" dep_time="05:20:31">
			</leg>
			<activity type="activity" link="26041" start_time="06:20:31" >
			</activity>
		</plan>

	</person>

<!-- ====================================================================== -->

	<person id="1066">
		<plan selected="yes">
			<activity type="activity" link="680" end_time="05:20:45" >
			</activity>
			<leg mode="av" dep_time="05:20:45">
			</leg>
			<activity type="activity" link="5311" start_time="06:20:45" >
			</activity>
		</plan>

	</person>

<!-- ====================================================================== -->

	<person id="1067">
		<plan selected="yes">
			<activity type="activity" link="6637" end_time="05:21:24" >
			</activity>
			<leg mode="av" dep_time="05:21:24">
			</leg>
			<activity type="activity" link="44391" start_time="06:21:24" >
			</activity>
		</plan>

	</person>

<!-- ====================================================================== -->

	<person id="1068">
		<plan selected="yes">
			<activity type="activity" link="15660" end_time="05:21:27" >
			</activity>
			<leg mode="av" dep_time="05:21:27">
			</leg>
			<activity type="activity" link="41840" start_time="06:21:27" >
			</activity>
		</plan>

	</person>

<!-- ====================================================================== -->

	<person id="1069">
		<plan selected="yes">
			<activity type="activity" link="12115" end_time="05:21:46" >
			</activity>
			<leg mode="av" dep_time="05:21:46">
			</leg>
			<activity type="activity" link="1677" start_time="06:21:46" >
			</activity>
		</plan>

	</person>

<!-- ====================================================================== -->

	<person id="107">
		<plan selected="yes">
			<activity type="activity" link="1671" end_time="00:42:56" >
			</activity>
			<leg mode="av" dep_time="00:42:56">
			</leg>
			<activity type="activity" link="22224" start_time="01:42:56" >
			</activity>
		</plan>

	</person>

<!-- ====================================================================== -->

	<person id="1070">
		<plan selected="yes">
			<activity type="activity" link="30029" end_time="05:21:45" >
			</activity>
			<leg mode="av" dep_time="05:21:45">
			</leg>
			<activity type="activity" link="33679" start_time="06:21:45" >
			</activity>
		</plan>

	</person>

<!-- ====================================================================== -->

	<person id="1071">
		<plan selected="yes">
			<activity type="activity" link="15298" end_time="05:21:48" >
			</activity>
			<leg mode="av" dep_time="05:21:48">
			</leg>
			<activity type="activity" link="10601" start_time="06:21:48" >
			</activity>
		</plan>

	</person>

<!-- ====================================================================== -->

	<person id="1072">
		<plan selected="yes">
			<activity type="activity" link="33799" end_time="05:22:21" >
			</activity>
			<leg mode="av" dep_time="05:22:21">
			</leg>
			<activity type="activity" link="22449" start_time="06:22:21" >
			</activity>
		</plan>

	</person>

<!-- ====================================================================== -->

	<person id="1073">
		<plan selected="yes">
			<activity type="activity" link="23545" end_time="05:22:36" >
			</activity>
			<leg mode="av" dep_time="05:22:36">
			</leg>